
     RDKit          3D

153176  0  0  0  0  0  0  0  0999 V2000
   -1.7098   -1.3294    0.0777 C   0  0  0  0  0  0  0  0  0  0  0  0
   -0.2377   -1.4790    0.4984 C   0  0  0  0  0  0  0  0  0  0  0  0
    0.0557   -0.5326    1.6721 C   0  0  0  0  0  0  0  0  0  0  0  0
   -0.2243    0.9210    1.2625 C   0  0  0  0  0  0  0  0  0  0  0  0
   -1.6966    1.0570    0.8374 C   0  0  0  0  0  0  0  0  0  0  0  0
   -1.9966    0.1200   -0.3420 C   0  0  0  0  0  0  0  0  0  0  0  0
   -1.0818    0.4891   -1.5175 C   0  0  0  0  0  0  0  0  0  0  0  0
    0.3925    0.3504   -1.1073 C   0  0  0  0  0  0  0  0  0  0  0  0
    0.6626   -1.1029   -0.6865 C   0  0  0  0  0  0  0  0  0  0  0  0
    0.6758    1.2901    0.0753 C   0  0  0  0  0  0  0  0  0  0  0  0
    1.2103    0.6975   -2.2119 O   0  0  0  0  0  0  0  0  0  0  0  0
   -2.3694   -1.6162    0.9041 H   0  0  0  0  0  0  0  0  0  0  0  0
   -1.9313   -2.0017   -0.7586 H   0  0  0  0  0  0  0  0  0  0  0  0
   -0.0416   -2.5099    0.8014 H   0  0  0  0  0  0  0  0  0  0  0  0
    1.0996   -0.6400    1.9911 H   0  0  0  0  0  0  0  0  0  0  0  0
   -0.5687   -0.8017    2.5280 H   0  0  0  0  0  0  0  0  0  0  0  0
   -0.0189    1.5849    2.1051 H   0  0  0  0  0  0  0  0  0  0  0  0
   -2.3559    0.8198    1.6797 H   0  0  0  0  0  0  0  0  0  0  0  0
   -1.9086    2.0912    0.5444 H   0  0  0  0  0  0  0  0  0  0  0  0
   -3.0456    0.2210   -0.6411 H   0  0  0  0  0  0  0  0  0  0  0  0
   -1.2941   -0.1538   -2.3793 H   0  0  0  0  0  0  0  0  0  0  0  0
   -1.2849    1.5140   -1.8483 H   0  0  0  0  0  0  0  0  0  0  0  0
    0.4759   -1.7750   -1.5308 H   0  0  0  0  0  0  0  0  0  0  0  0
    1.7202   -1.2349   -0.4253 H   0  0  0  0  0  0  0  0  0  0  0  0
    0.4987    2.3283   -0.2244 H   0  0  0  0  0  0  0  0  0  0  0  0
    1.7339    1.2361    0.3614 H   0  0  0  0  0  0  0  0  0  0  0  0
    2.1422    0.6055   -1.9391 H   0  0  0  0  0  0  0  0  0  0  0  0
    1.0418   -4.3428    3.1256 N   0  0  0  0  0  0  0  0  0  0  0  0
   -0.2309   -4.5508    3.7457 C   0  0  0  0  0  0  0  0  0  0  0  0
   -0.3218   -3.4319    4.8198 C   0  0  0  0  0  0  0  0  0  0  0  0
    0.9431   -2.7705    4.7430 N   0  0  0  0  0  0  0  0  0  0  0  0
    1.7780   -3.3888    3.8201 C   0  0  0  0  0  0  0  0  0  0  0  0
   -1.3870   -4.3532    2.9296 N   0  0  0  0  0  0  0  0  0  0  0  0
   -2.1783   -3.3245    3.4318 C   0  0  0  0  0  0  0  0  0  0  0  0
   -1.4764   -2.6729    4.4452 N   0  0  0  0  0  0  0  0  0  0  0  0
    2.9754   -3.1934    3.7045 O   0  0  0  0  0  0  0  0  0  0  0  0
   -3.3279   -3.0899    3.1017 O   0  0  0  0  0  0  0  0  0  0  0  0
    0.9558   -0.4910    5.4687 N   0  0  0  0  0  0  0  0  0  0  0  0
   -0.3026    0.0169    5.9178 C   0  0  0  0  0  0  0  0  0  0  0  0
   -0.1971    1.5498    5.6879 C   0  0  0  0  0  0  0  0  0  0  0  0
    1.0755    1.7258    5.0576 N   0  0  0  0  0  0  0  0  0  0  0  0
    1.7998    0.5385    5.0704 C   0  0  0  0  0  0  0  0  0  0  0  0
   -1.4636   -0.3741    5.1770 N   0  0  0  0  0  0  0  0  0  0  0  0
   -2.1557    0.7504    4.7291 C   0  0  0  0  0  0  0  0  0  0  0  0
   -1.3524    1.8721    4.9115 N   0  0  0  0  0  0  0  0  0  0  0  0
    2.9956    0.4339    4.8593 O   0  0  0  0  0  0  0  0  0  0  0  0
   -3.3065    0.7614    4.3279 O   0  0  0  0  0  0  0  0  0  0  0  0
    1.4475   -3.5394   -3.4654 N   0  0  0  0  0  0  0  0  0  0  0  0
    0.2903   -3.7323   -4.2867 C   0  0  0  0  0  0  0  0  0  0  0  0
    0.2891   -2.5075   -5.2412 C   0  0  0  0  0  0  0  0  0  0  0  0
    1.4995   -1.8172   -4.9343 N   0  0  0  0  0  0  0  0  0  0  0  0
    2.2236   -2.4877   -3.9569 C   0  0  0  0  0  0  0  0  0  0  0  0
   -0.9812   -3.6735   -3.6339 N   0  0  0  0  0  0  0  0  0  0  0  0
   -1.7400   -2.6128   -4.1242 C   0  0  0  0  0  0  0  0  0  0  0  0
   -0.9358   -1.8316   -4.9486 N   0  0  0  0  0  0  0  0  0  0  0  0
    3.3820   -2.2603   -3.6509 O   0  0  0  0  0  0  0  0  0  0  0  0
   -2.9348   -2.4539   -3.9404 O   0  0  0  0  0  0  0  0  0  0  0  0
    1.5335    4.3201   -2.9804 N   0  0  0  0  0  0  0  0  0  0  0  0
    0.3311    5.0730   -2.8278 C   0  0  0  0  0  0  0  0  0  0  0  0
    0.3416    5.5204   -1.3410 C   0  0  0  0  0  0  0  0  0  0  0  0
    1.4942    4.8766   -0.7861 N   0  0  0  0  0  0  0  0  0  0  0  0
    2.2612    4.2949   -1.7976 C   0  0  0  0  0  0  0  0  0  0  0  0
   -0.9015    4.3647   -2.9760 N   0  0  0  0  0  0  0  0  0  0  0  0
   -1.7004    4.5336   -1.8491 C   0  0  0  0  0  0  0  0  0  0  0  0
   -0.9325    5.1078   -0.8383 N   0  0  0  0  0  0  0  0  0  0  0  0
    3.4163    3.9208   -1.6831 O   0  0  0  0  0  0  0  0  0  0  0  0
   -2.8973    4.3097   -1.7871 O   0  0  0  0  0  0  0  0  0  0  0  0
    1.2402    3.6547    3.6471 N   0  0  0  0  0  0  0  0  0  0  0  0
    0.0859    4.4930    3.5828 C   0  0  0  0  0  0  0  0  0  0  0  0
    0.2029    5.2018    2.2036 C   0  0  0  0  0  0  0  0  0  0  0  0
    1.3803    4.6387    1.6128 N   0  0  0  0  0  0  0  0  0  0  0  0
    2.0559    3.8436    2.5380 C   0  0  0  0  0  0  0  0  0  0  0  0
   -1.1883    3.8430    3.5425 N   0  0  0  0  0  0  0  0  0  0  0  0
   -1.9063    4.2513    2.4230 C   0  0  0  0  0  0  0  0  0  0  0  0
   -1.0442    4.9228    1.5600 N   0  0  0  0  0  0  0  0  0  0  0  0
    3.2074    3.4566    2.4354 O   0  0  0  0  0  0  0  0  0  0  0  0
   -3.1076    4.1167    2.2652 O   0  0  0  0  0  0  0  0  0  0  0  0
    2.0515   -0.7685   -5.7451 C   0  0  0  0  0  0  0  0  0  0  0  0
   -2.0835   -1.6690    5.2789 C   0  0  0  0  0  0  0  0  0  0  0  0
   -1.4535   -0.7472   -5.7359 C   0  0  0  0  0  0  0  0  0  0  0  0
    1.4162   -1.8266    5.7128 C   0  0  0  0  0  0  0  0  0  0  0  0
    1.1917   -5.1028    0.8590 N   0  0  0  0  0  0  0  0  0  0  0  0
    0.0292   -5.7379    0.3256 C   0  0  0  0  0  0  0  0  0  0  0  0
    0.1434   -5.5201   -1.2098 C   0  0  0  0  0  0  0  0  0  0  0  0
    1.3283   -4.7310   -1.3702 N   0  0  0  0  0  0  0  0  0  0  0  0
    2.0090   -4.6239   -0.1577 C   0  0  0  0  0  0  0  0  0  0  0  0
   -1.2383   -5.1715    0.6727 N   0  0  0  0  0  0  0  0  0  0  0  0
   -1.9567   -4.8502   -0.4745 C   0  0  0  0  0  0  0  0  0  0  0  0
   -1.0987   -4.9079   -1.5697 N   0  0  0  0  0  0  0  0  0  0  0  0
    3.1646   -4.2604   -0.0214 O   0  0  0  0  0  0  0  0  0  0  0  0
   -3.1561   -4.6370   -0.5216 O   0  0  0  0  0  0  0  0  0  0  0  0
    1.6469   -5.2673    2.2100 C   0  0  0  0  0  0  0  0  0  0  0  0
   -1.8591   -5.3066    1.9621 C   0  0  0  0  0  0  0  0  0  0  0  0
   -1.5678   -4.7734   -2.9204 C   0  0  0  0  0  0  0  0  0  0  0  0
    2.0087   -4.5599   -2.6252 C   0  0  0  0  0  0  0  0  0  0  0  0
    1.6927    3.0033    4.8431 C   0  0  0  0  0  0  0  0  0  0  0  0
   -1.8118    3.2140    4.6747 C   0  0  0  0  0  0  0  0  0  0  0  0
    2.0630    5.2178    0.4876 C   0  0  0  0  0  0  0  0  0  0  0  0
   -1.5102    5.5986    0.3817 C   0  0  0  0  0  0  0  0  0  0  0  0
   -0.8939    2.6872   -4.6968 N   0  0  0  0  0  0  0  0  0  0  0  0
    0.3166    2.5484   -5.4471 C   0  0  0  0  0  0  0  0  0  0  0  0
    0.3083    1.0666   -5.9188 C   0  0  0  0  0  0  0  0  0  0  0  0
   -0.9058    0.5318   -5.3830 N   0  0  0  0  0  0  0  0  0  0  0  0
   -1.6630    1.5315   -4.7816 C   0  0  0  0  0  0  0  0  0  0  0  0
    1.5558    2.6887   -4.7473 N   0  0  0  0  0  0  0  0  0  0  0  0
    2.3136    1.5257   -4.8327 C   0  0  0  0  0  0  0  0  0  0  0  0
    1.5438    0.5351   -5.4329 N   0  0  0  0  0  0  0  0  0  0  0  0
   -2.8379    1.4381   -4.4679 O   0  0  0  0  0  0  0  0  0  0  0  0
    3.4889    1.4202   -4.5218 O   0  0  0  0  0  0  0  0  0  0  0  0
   -1.4275    3.9403   -4.2436 C   0  0  0  0  0  0  0  0  0  0  0  0
    2.0775    3.9277   -4.2500 C   0  0  0  0  0  0  0  0  0  0  0  0
   -0.2608   -5.5398    4.2185 H   0  0  0  0  0  0  0  0  0  0  0  0
   -0.4658   -3.8672    5.8160 H   0  0  0  0  0  0  0  0  0  0  0  0
   -0.4455   -0.2023    6.9827 H   0  0  0  0  0  0  0  0  0  0  0  0
   -0.2185    2.0837    6.6455 H   0  0  0  0  0  0  0  0  0  0  0  0
    0.3868   -4.6621   -4.8603 H   0  0  0  0  0  0  0  0  0  0  0  0
    0.2919   -2.8383   -6.2868 H   0  0  0  0  0  0  0  0  0  0  0  0
    0.3406    5.9473   -3.4898 H   0  0  0  0  0  0  0  0  0  0  0  0
    0.4493    6.6096   -1.2718 H   0  0  0  0  0  0  0  0  0  0  0  0
    0.1044    5.2300    4.3947 H   0  0  0  0  0  0  0  0  0  0  0  0
    0.3283    6.2825    2.3417 H   0  0  0  0  0  0  0  0  0  0  0  0
    1.8484   -0.9857   -6.7998 H   0  0  0  0  0  0  0  0  0  0  0  0
    3.1398   -0.7653   -5.6242 H   0  0  0  0  0  0  0  0  0  0  0  0
   -3.1421   -1.5792    5.0152 H   0  0  0  0  0  0  0  0  0  0  0  0
   -2.0464   -2.0015    6.3226 H   0  0  0  0  0  0  0  0  0  0  0  0
   -2.5420   -0.7118   -5.6237 H   0  0  0  0  0  0  0  0  0  0  0  0
   -1.2511   -0.9448   -6.7947 H   0  0  0  0  0  0  0  0  0  0  0  0
    2.5111   -1.8333    5.7149 H   0  0  0  0  0  0  0  0  0  0  0  0
    1.0925   -2.1425    6.7108 H   0  0  0  0  0  0  0  0  0  0  0  0
    0.0377   -6.8088    0.5620 H   0  0  0  0  0  0  0  0  0  0  0  0
    0.2575   -6.4830   -1.7223 H   0  0  0  0  0  0  0  0  0  0  0  0
    2.7343   -5.1434    2.2381 H   0  0  0  0  0  0  0  0  0  0  0  0
    1.4352   -6.2905    2.5406 H   0  0  0  0  0  0  0  0  0  0  0  0
   -2.9424   -5.1922    1.8533 H   0  0  0  0  0  0  0  0  0  0  0  0
   -1.6819   -6.3201    2.3392 H   0  0  0  0  0  0  0  0  0  0  0  0
   -2.6559   -4.6538   -2.9115 H   0  0  0  0  0  0  0  0  0  0  0  0
   -1.3593   -5.7027   -3.4627 H   0  0  0  0  0  0  0  0  0  0  0  0
    3.0610   -4.3267   -2.4337 H   0  0  0  0  0  0  0  0  0  0  0  0
    1.9991   -5.5122   -3.1683 H   0  0  0  0  0  0  0  0  0  0  0  0
    2.7788    2.8751    4.7909 H   0  0  0  0  0  0  0  0  0  0  0  0
    1.4903    3.6492    5.7050 H   0  0  0  0  0  0  0  0  0  0  0  0
   -2.8959    3.1945    4.5233 H   0  0  0  0  0  0  0  0  0  0  0  0
   -1.6257    3.8211    5.5678 H   0  0  0  0  0  0  0  0  0  0  0  0
    3.1122    4.9062    0.5058 H   0  0  0  0  0  0  0  0  0  0  0  0
    2.0647    6.3089    0.5951 H   0  0  0  0  0  0  0  0  0  0  0  0
   -1.2906    6.6683    0.4757 H   0  0  0  0  0  0  0  0  0  0  0  0
   -2.5996    5.5069    0.3232 H   0  0  0  0  0  0  0  0  0  0  0  0
    0.2990    3.2253   -6.3098 H   0  0  0  0  0  0  0  0  0  0  0  0
    0.2868    1.0132   -7.0140 H   0  0  0  0  0  0  0  0  0  0  0  0
   -2.5167    3.8574   -4.1691 H   0  0  0  0  0  0  0  0  0  0  0  0
   -1.2197    4.7115   -4.9940 H   0  0  0  0  0  0  0  0  0  0  0  0
    1.8800    4.7166   -4.9844 H   0  0  0  0  0  0  0  0  0  0  0  0
    3.1654    3.8442   -4.1567 H   0  0  0  0  0  0  0  0  0  0  0  0
  1  2  1  0
  2  3  1  0
  3  4  1  0
  4  5  1  0
  5  6  1  0
  6  7  1  0
  7  8  1  0
  8  9  1  0
  8 10  1  0
  8 11  1  0
  6  1  1  0
  9  2  1  0
 10  4  1  0
  1 12  1  0
  1 13  1  0
  2 14  1  0
  3 15  1  0
  3 16  1  0
  4 17  1  0
  5 18  1  0
  5 19  1  0
  6 20  1  0
  7 21  1  0
  7 22  1  0
  9 23  1  0
  9 24  1  0
 10 25  1  0
 10 26  1  0
 11 27  1  0
 28 29  1  0
 28 92  1  0
 29 30  1  0
 29 33  1  0
 29112  1  0
 30 31  1  0
 30113  1  0
 31 32  1  0
 31 81  1  0
 32 28  1  0
 33 34  1  0
 33 93  1  0
 34 35  1  0
 35 30  1  0
 36 32  2  0
 37 34  2  0
 38 39  1  0
 39 40  1  0
 39 43  1  0
 39114  1  0
 40 41  1  0
 40115  1  0
 41 42  1  0
 41 96  1  0
 42 38  1  0
 43 44  1  0
 44 45  1  0
 45 40  1  0
 45 97  1  0
 46 42  2  0
 47 44  2  0
 48 49  1  0
 48 95  1  0
 49 50  1  0
 49 53  1  0
 49116  1  0
 50 51  1  0
 50117  1  0
 51 52  1  0
 52 48  1  0
 53 54  1  0
 53 94  1  0
 54 55  1  0
 55 50  1  0
 55 80  1  0
 56 52  2  0
 57 54  2  0
 58 59  1  0
 58111  1  0
 59 60  1  0
 59 63  1  0
 59118  1  0
 60 61  1  0
 60119  1  0
 61 62  1  0
 61 98  1  0
 62 58  1  0
 63 64  1  0
 63110  1  0
 64 65  1  0
 65 60  1  0
 65 99  1  0
 66 62  2  0
 67 64  2  0
 68 69  1  0
 68 96  1  0
 69 70  1  0
 69 73  1  0
 69120  1  0
 70 71  1  0
 70121  1  0
 71 72  1  0
 72 68  1  0
 73 74  1  0
 73 97  1  0
 74 75  1  0
 75 70  1  0
 75 99  1  0
 76 72  2  0
 77 74  2  0
 78 51  1  0
 78107  1  0
 78122  1  0
 78123  1  0
 79 35  1  0
 79 43  1  0
 79124  1  0
 79125  1  0
 80126  1  0
 80127  1  0
 81 38  1  0
 81128  1  0
 81129  1  0
 82 83  1  0
 82 92  1  0
 83 84  1  0
 83 87  1  0
 83130  1  0
 84 85  1  0
 84131  1  0
 85 86  1  0
 85 95  1  0
 86 82  1  0
 87 88  1  0
 87 93  1  0
 88 89  1  0
 89 84  1  0
 89 94  1  0
 90 86  2  0
 91 88  2  0
 92132  1  0
 92133  1  0
 93134  1  0
 93135  1  0
 94136  1  0
 94137  1  0
 95138  1  0
 95139  1  0
 96140  1  0
 96141  1  0
 97142  1  0
 97143  1  0
 98 71  1  0
 98144  1  0
 98145  1  0
 99146  1  0
 99147  1  0
100101  1  0
101102  1  0
101105  1  0
101148  1  0
102103  1  0
102149  1  0
103 80  1  0
103104  1  0
104100  1  0
104108  2  0
105106  1  0
106107  1  0
107102  1  0
109106  2  0
110100  1  0
110150  1  0
110151  1  0
111105  1  0
111152  1  0
111153  1  0
M  END
