
     RDKit          3D

177201  0  0  0  0  0  0  0  0999 V2000
   -3.3053   -3.0784    0.0536 C   0  0  0  0  0  0  0  0  0  0  0  0
   -1.9897   -2.4086    0.2209 C   0  0  0  0  0  0  0  0  0  0  0  0
   -1.7942   -1.1033   -0.2498 C   0  0  0  0  0  0  0  0  0  0  0  0
   -0.5703   -0.4364   -0.0515 C   0  0  0  0  0  0  0  0  0  0  0  0
    0.4759   -1.1002    0.6216 C   0  0  0  0  0  0  0  0  0  0  0  0
    0.2748   -2.4094    1.0778 C   0  0  0  0  0  0  0  0  0  0  0  0
   -0.9460   -3.0563    0.8859 C   0  0  0  0  0  0  0  0  0  0  0  0
    1.6952   -0.4382    0.8311 C   0  0  0  0  0  0  0  0  0  0  0  0
    1.8966    0.8782    0.3894 C   0  0  0  0  0  0  0  0  0  0  0  0
    0.8535    1.5464   -0.2779 C   0  0  0  0  0  0  0  0  0  0  0  0
   -0.3647    0.8800   -0.4955 C   0  0  0  0  0  0  0  0  0  0  0  0
    1.0133    2.9662   -0.7470 C   0  0  0  0  0  0  0  0  0  0  0  0
    3.2152    1.5506    0.6587 C   0  0  0  0  0  0  0  0  0  0  0  0
   -3.4621   -4.0570   -0.8830 C   0  0  0  0  0  0  0  0  0  0  0  0
   -2.3722   -4.5259   -1.8347 C   0  0  0  0  0  0  0  0  0  0  0  0
   -2.7478   -4.3729   -3.3042 C   0  0  0  0  0  0  0  0  0  0  0  0
   -4.7831   -4.7927   -1.0290 C   0  0  0  0  0  0  0  0  0  0  0  0
   -5.8989   -3.9378   -1.6442 C   0  0  0  0  0  0  0  0  0  0  0  0
   -5.9576   -2.4919   -1.1393 C   0  0  0  0  0  0  0  0  0  0  0  0
   -5.7436   -2.3994    0.3515 C   0  0  0  0  0  0  0  0  0  0  0  0
   -4.4752   -2.6838    0.9057 C   0  0  0  0  0  0  0  0  0  0  0  0
   -4.3068   -2.5799    2.2949 C   0  0  0  0  0  0  0  0  0  0  0  0
   -5.3708   -2.2165    3.1226 C   0  0  0  0  0  0  0  0  0  0  0  0
   -6.6203   -1.9470    2.5723 C   0  0  0  0  0  0  0  0  0  0  0  0
   -6.8069   -2.0360    1.1931 C   0  0  0  0  0  0  0  0  0  0  0  0
   -2.6111   -0.6011   -0.7670 H   0  0  0  0  0  0  0  0  0  0  0  0
    1.0642   -2.9432    1.5986 H   0  0  0  0  0  0  0  0  0  0  0  0
   -1.0743   -4.0660    1.2653 H   0  0  0  0  0  0  0  0  0  0  0  0
    2.4983   -0.9540    1.3535 H   0  0  0  0  0  0  0  0  0  0  0  0
   -1.1725    1.3960   -1.0110 H   0  0  0  0  0  0  0  0  0  0  0  0
    0.1191    3.3169   -1.2712 H   0  0  0  0  0  0  0  0  0  0  0  0
    1.8559    3.0467   -1.4396 H   0  0  0  0  0  0  0  0  0  0  0  0
    1.1829    3.6292    0.1066 H   0  0  0  0  0  0  0  0  0  0  0  0
    3.6619    1.9085   -0.2731 H   0  0  0  0  0  0  0  0  0  0  0  0
    3.0790    2.3930    1.3426 H   0  0  0  0  0  0  0  0  0  0  0  0
    3.9282    0.8598    1.1178 H   0  0  0  0  0  0  0  0  0  0  0  0
   -1.4356   -3.9852   -1.6838 H   0  0  0  0  0  0  0  0  0  0  0  0
   -2.1492   -5.5794   -1.6257 H   0  0  0  0  0  0  0  0  0  0  0  0
   -3.0978   -3.3607   -3.5231 H   0  0  0  0  0  0  0  0  0  0  0  0
   -3.5368   -5.0740   -3.5936 H   0  0  0  0  0  0  0  0  0  0  0  0
   -1.8784   -4.5785   -3.9373 H   0  0  0  0  0  0  0  0  0  0  0  0
   -4.6596   -5.7050   -1.6253 H   0  0  0  0  0  0  0  0  0  0  0  0
   -5.1010   -5.1628   -0.0443 H   0  0  0  0  0  0  0  0  0  0  0  0
   -6.8565   -4.4325   -1.4364 H   0  0  0  0  0  0  0  0  0  0  0  0
   -5.7952   -3.9206   -2.7361 H   0  0  0  0  0  0  0  0  0  0  0  0
   -5.2065   -1.8750   -1.6499 H   0  0  0  0  0  0  0  0  0  0  0  0
   -6.9250   -2.0560   -1.4182 H   0  0  0  0  0  0  0  0  0  0  0  0
   -3.3351   -2.7796    2.7429 H   0  0  0  0  0  0  0  0  0  0  0  0
   -5.2119   -2.1430    4.1939 H   0  0  0  0  0  0  0  0  0  0  0  0
   -7.4477   -1.6620    3.2145 H   0  0  0  0  0  0  0  0  0  0  0  0
   -7.7835   -1.8141    0.7721 H   0  0  0  0  0  0  0  0  0  0  0  0
    6.0046   -1.8341   -0.2816 N   0  0  0  0  0  0  0  0  0  0  0  0
    5.7678   -3.1835    0.1318 C   0  0  0  0  0  0  0  0  0  0  0  0
    5.8434   -3.1214    1.6839 C   0  0  0  0  0  0  0  0  0  0  0  0
    6.0884   -1.7405    1.9673 N   0  0  0  0  0  0  0  0  0  0  0  0
    6.2888   -1.0142    0.8015 C   0  0  0  0  0  0  0  0  0  0  0  0
    4.4734   -3.7357   -0.1312 N   0  0  0  0  0  0  0  0  0  0  0  0
    3.8459   -4.1272    1.0442 C   0  0  0  0  0  0  0  0  0  0  0  0
    4.5924   -3.6628    2.1193 N   0  0  0  0  0  0  0  0  0  0  0  0
    6.7152    0.1252    0.7383 O   0  0  0  0  0  0  0  0  0  0  0  0
    2.8496   -4.8238    1.1232 O   0  0  0  0  0  0  0  0  0  0  0  0
    5.1276   -0.8518    3.9617 N   0  0  0  0  0  0  0  0  0  0  0  0
    4.3751   -1.7415    4.7900 C   0  0  0  0  0  0  0  0  0  0  0  0
    3.2770   -0.8409    5.4219 C   0  0  0  0  0  0  0  0  0  0  0  0
    3.5384    0.4573    4.8791 N   0  0  0  0  0  0  0  0  0  0  0  0
    4.6938    0.4587    4.1080 C   0  0  0  0  0  0  0  0  0  0  0  0
    3.6446   -2.7785    4.1293 N   0  0  0  0  0  0  0  0  0  0  0  0
    2.2852   -2.6800    4.3974 C   0  0  0  0  0  0  0  0  0  0  0  0
    2.0490   -1.4745    5.0473 N   0  0  0  0  0  0  0  0  0  0  0  0
    5.2751    1.4481    3.6987 O   0  0  0  0  0  0  0  0  0  0  0  0
    1.4556   -3.5427    4.1692 O   0  0  0  0  0  0  0  0  0  0  0  0
    1.5782    1.5503   -4.2808 N   0  0  0  0  0  0  0  0  0  0  0  0
    0.6170    0.6738   -4.8891 C   0  0  0  0  0  0  0  0  0  0  0  0
   -0.5367    1.6274   -5.3158 C   0  0  0  0  0  0  0  0  0  0  0  0
   -0.1429    2.9106   -4.8381 N   0  0  0  0  0  0  0  0  0  0  0  0
    1.1675    2.8827   -4.3952 C   0  0  0  0  0  0  0  0  0  0  0  0
   -0.0203   -0.2817   -4.0256 N   0  0  0  0  0  0  0  0  0  0  0  0
   -1.4126   -0.1232   -4.0918 C   0  0  0  0  0  0  0  0  0  0  0  0
   -1.7042    1.0698   -4.7276 N   0  0  0  0  0  0  0  0  0  0  0  0
    1.8714    3.8640   -4.2253 O   0  0  0  0  0  0  0  0  0  0  0  0
   -2.2447   -0.9441   -3.7471 O   0  0  0  0  0  0  0  0  0  0  0  0
   -2.5799    5.0979    0.2342 N   0  0  0  0  0  0  0  0  0  0  0  0
   -3.5236    4.3022    0.9471 C   0  0  0  0  0  0  0  0  0  0  0  0
   -2.7091    3.6707    2.1141 C   0  0  0  0  0  0  0  0  0  0  0  0
   -1.4013    4.2444    1.9642 N   0  0  0  0  0  0  0  0  0  0  0  0
   -1.3896    5.1869    0.9330 C   0  0  0  0  0  0  0  0  0  0  0  0
   -4.0691    3.1931    0.2458 N   0  0  0  0  0  0  0  0  0  0  0  0
   -3.7804    2.0086    0.8995 C   0  0  0  0  0  0  0  0  0  0  0  0
   -2.8258    2.2548    1.8973 N   0  0  0  0  0  0  0  0  0  0  0  0
   -0.5179    6.0156    0.7320 O   0  0  0  0  0  0  0  0  0  0  0  0
   -4.3473    0.9512    0.6903 O   0  0  0  0  0  0  0  0  0  0  0  0
    1.6569    1.9138    4.6410 N   0  0  0  0  0  0  0  0  0  0  0  0
    0.4071    1.3737    5.0637 C   0  0  0  0  0  0  0  0  0  0  0  0
   -0.6596    2.1393    4.2331 C   0  0  0  0  0  0  0  0  0  0  0  0
    0.1012    3.1010    3.4910 N   0  0  0  0  0  0  0  0  0  0  0  0
    1.4476    3.0461    3.8665 C   0  0  0  0  0  0  0  0  0  0  0  0
    0.1767   -0.0008    4.7768 N   0  0  0  0  0  0  0  0  0  0  0  0
   -0.9664   -0.1416    4.0014 C   0  0  0  0  0  0  0  0  0  0  0  0
   -1.3304    1.1146    3.4871 N   0  0  0  0  0  0  0  0  0  0  0  0
    2.2808    3.9115    3.6508 O   0  0  0  0  0  0  0  0  0  0  0  0
   -1.6122   -1.1720    3.9013 O   0  0  0  0  0  0  0  0  0  0  0  0
   -0.8882    4.1179   -5.0530 C   0  0  0  0  0  0  0  0  0  0  0  0
    4.2483   -3.9143    3.4908 C   0  0  0  0  0  0  0  0  0  0  0  0
   -3.0382    1.5347   -4.9821 C   0  0  0  0  0  0  0  0  0  0  0  0
    6.3354   -1.2120    3.2772 C   0  0  0  0  0  0  0  0  0  0  0  0
    4.9063   -1.0961   -2.2687 N   0  0  0  0  0  0  0  0  0  0  0  0
    4.0924   -2.0538   -2.9384 C   0  0  0  0  0  0  0  0  0  0  0  0
    2.9947   -1.2159   -3.6515 C   0  0  0  0  0  0  0  0  0  0  0  0
    3.3400    0.1432   -3.3471 N   0  0  0  0  0  0  0  0  0  0  0  0
    4.5612    0.1871   -2.6626 C   0  0  0  0  0  0  0  0  0  0  0  0
    3.3783   -2.9675   -2.1140 N   0  0  0  0  0  0  0  0  0  0  0  0
    2.0183   -2.8824   -2.3714 C   0  0  0  0  0  0  0  0  0  0  0  0
    1.7635   -1.7135   -3.1083 N   0  0  0  0  0  0  0  0  0  0  0  0
    5.2674    1.1736   -2.5311 O   0  0  0  0  0  0  0  0  0  0  0  0
    1.2057   -3.7530   -2.1064 O   0  0  0  0  0  0  0  0  0  0  0  0
    6.1581   -1.4148   -1.6446 C   0  0  0  0  0  0  0  0  0  0  0  0
    3.9843   -4.0796   -1.4374 C   0  0  0  0  0  0  0  0  0  0  0  0
    0.4862   -1.6013   -3.7568 C   0  0  0  0  0  0  0  0  0  0  0  0
    2.9785    1.2612   -4.1699 C   0  0  0  0  0  0  0  0  0  0  0  0
    2.8960    1.6621    5.3184 C   0  0  0  0  0  0  0  0  0  0  0  0
    0.7524   -1.0822    5.5265 C   0  0  0  0  0  0  0  0  0  0  0  0
   -0.4386    4.3429    3.0210 C   0  0  0  0  0  0  0  0  0  0  0  0
   -2.6452    1.2556    2.9194 C   0  0  0  0  0  0  0  0  0  0  0  0
   -4.3771    3.3037   -2.1149 N   0  0  0  0  0  0  0  0  0  0  0  0
   -3.8601    4.4655   -2.7746 C   0  0  0  0  0  0  0  0  0  0  0  0
   -3.2286    3.9069   -4.0831 C   0  0  0  0  0  0  0  0  0  0  0  0
   -3.4744    2.4975   -4.0124 N   0  0  0  0  0  0  0  0  0  0  0  0
   -4.2138    2.1628   -2.8873 C   0  0  0  0  0  0  0  0  0  0  0  0
   -2.7828    5.1623   -2.1388 N   0  0  0  0  0  0  0  0  0  0  0  0
   -1.6381    5.1540   -2.9227 C   0  0  0  0  0  0  0  0  0  0  0  0
   -1.8657    4.3438   -4.0258 N   0  0  0  0  0  0  0  0  0  0  0  0
   -4.6899    1.0675   -2.6499 O   0  0  0  0  0  0  0  0  0  0  0  0
   -0.6271    5.7993   -2.7114 O   0  0  0  0  0  0  0  0  0  0  0  0
   -5.0145    3.2998   -0.8292 C   0  0  0  0  0  0  0  0  0  0  0  0
   -2.8951    5.9002   -0.9125 C   0  0  0  0  0  0  0  0  0  0  0  0
    6.5448   -3.8427   -0.2725 H   0  0  0  0  0  0  0  0  0  0  0  0
    6.6704   -3.7339    2.0616 H   0  0  0  0  0  0  0  0  0  0  0  0
    5.0212   -2.1719    5.5641 H   0  0  0  0  0  0  0  0  0  0  0  0
    3.3720   -0.8197    6.5139 H   0  0  0  0  0  0  0  0  0  0  0  0
    1.0418    0.1752   -5.7687 H   0  0  0  0  0  0  0  0  0  0  0  0
   -0.6363    1.6520   -6.4076 H   0  0  0  0  0  0  0  0  0  0  0  0
   -4.3283    4.9388    1.3341 H   0  0  0  0  0  0  0  0  0  0  0  0
   -3.1496    3.9492    3.0790 H   0  0  0  0  0  0  0  0  0  0  0  0
    0.2599    1.5684    6.1334 H   0  0  0  0  0  0  0  0  0  0  0  0
   -1.3669    2.6397    4.9062 H   0  0  0  0  0  0  0  0  0  0  0  0
   -1.3836    4.0748   -6.0288 H   0  0  0  0  0  0  0  0  0  0  0  0
   -0.1968    4.9671   -5.0700 H   0  0  0  0  0  0  0  0  0  0  0  0
    3.5495   -4.7564    3.5309 H   0  0  0  0  0  0  0  0  0  0  0  0
    5.1476   -4.2068    4.0437 H   0  0  0  0  0  0  0  0  0  0  0  0
   -3.7214    0.6790   -4.9592 H   0  0  0  0  0  0  0  0  0  0  0  0
   -3.0920    1.9763   -5.9829 H   0  0  0  0  0  0  0  0  0  0  0  0
    6.9714   -0.3249    3.1887 H   0  0  0  0  0  0  0  0  0  0  0  0
    6.8845   -1.9514    3.8704 H   0  0  0  0  0  0  0  0  0  0  0  0
    4.6906   -2.6005   -3.6779 H   0  0  0  0  0  0  0  0  0  0  0  0
    3.0334   -1.3931   -4.7334 H   0  0  0  0  0  0  0  0  0  0  0  0
    6.8102   -0.5356   -1.6724 H   0  0  0  0  0  0  0  0  0  0  0  0
    6.6581   -2.2065   -2.2135 H   0  0  0  0  0  0  0  0  0  0  0  0
    3.2492   -4.8850   -1.3391 H   0  0  0  0  0  0  0  0  0  0  0  0
    4.8117   -4.4673   -2.0420 H   0  0  0  0  0  0  0  0  0  0  0  0
   -0.2510   -2.1307   -3.1428 H   0  0  0  0  0  0  0  0  0  0  0  0
    0.5361   -2.1472   -4.7075 H   0  0  0  0  0  0  0  0  0  0  0  0
    3.4890    2.1531   -3.7906 H   0  0  0  0  0  0  0  0  0  0  0  0
    3.3761    1.0911   -5.1782 H   0  0  0  0  0  0  0  0  0  0  0  0
    3.5758    2.5052    5.1580 H   0  0  0  0  0  0  0  0  0  0  0  0
    2.7135    1.6017    6.3973 H   0  0  0  0  0  0  0  0  0  0  0  0
    0.0825   -1.9470    5.4833 H   0  0  0  0  0  0  0  0  0  0  0  0
    0.8325   -0.7906    6.5797 H   0  0  0  0  0  0  0  0  0  0  0  0
    0.3850    4.9832    2.6882 H   0  0  0  0  0  0  0  0  0  0  0  0
   -0.9029    4.8644    3.8670 H   0  0  0  0  0  0  0  0  0  0  0  0
   -3.3513    1.4651    3.7327 H   0  0  0  0  0  0  0  0  0  0  0  0
   -2.9396    0.2851    2.5063 H   0  0  0  0  0  0  0  0  0  0  0  0
   -4.6776    5.1626   -2.9911 H   0  0  0  0  0  0  0  0  0  0  0  0
   -3.7154    4.3247   -4.9717 H   0  0  0  0  0  0  0  0  0  0  0  0
   -5.7036    2.4499   -0.7813 H   0  0  0  0  0  0  0  0  0  0  0  0
   -5.6057    4.2145   -0.7134 H   0  0  0  0  0  0  0  0  0  0  0  0
   -3.9103    6.2992   -0.8141 H   0  0  0  0  0  0  0  0  0  0  0  0
   -2.2064    6.7508   -0.9537 H   0  0  0  0  0  0  0  0  0  0  0  0
  1  2  1  0
  2  3  2  0
  3  4  1  0
  4  5  2  0
  5  6  1  0
  6  7  2  0
  5  8  1  0
  8  9  2  0
  9 10  1  0
 10 11  2  0
 10 12  1  0
  9 13  1  0
  1 14  2  0
 14 15  1  0
 15 16  1  0
 14 17  1  0
 17 18  1  0
 18 19  1  0
 19 20  1  0
 20 21  2  0
 21 22  1  0
 22 23  2  0
 23 24  1  0
 24 25  2  0
 21  1  1  0
  7  2  1  0
 25 20  1  0
 11  4  1  0
  3 26  1  0
  6 27  1  0
  7 28  1  0
  8 29  1  0
 11 30  1  0
 12 31  1  0
 12 32  1  0
 12 33  1  0
 13 34  1  0
 13 35  1  0
 13 36  1  0
 15 37  1  0
 15 38  1  0
 16 39  1  0
 16 40  1  0
 16 41  1  0
 17 42  1  0
 17 43  1  0
 18 44  1  0
 18 45  1  0
 19 46  1  0
 19 47  1  0
 22 48  1  0
 23 49  1  0
 24 50  1  0
 25 51  1  0
 52 53  1  0
 52116  1  0
 53 54  1  0
 53 57  1  0
 53136  1  0
 54 55  1  0
 54137  1  0
 55 56  1  0
 55105  1  0
 56 52  1  0
 57 58  1  0
 57117  1  0
 58 59  1  0
 59 54  1  0
 60 56  2  0
 61 58  2  0
 62 63  1  0
 63 64  1  0
 63 67  1  0
 63138  1  0
 64 65  1  0
 64139  1  0
 65 66  1  0
 65120  1  0
 66 62  1  0
 67 68  1  0
 68 69  1  0
 69 64  1  0
 69121  1  0
 70 66  2  0
 71 68  2  0
 72 73  1  0
 72119  1  0
 73 74  1  0
 73 77  1  0
 73140  1  0
 74 75  1  0
 74141  1  0
 75 76  1  0
 76 72  1  0
 77 78  1  0
 77118  1  0
 78 79  1  0
 79 74  1  0
 79104  1  0
 80 76  2  0
 81 78  2  0
 82 83  1  0
 82135  1  0
 83 84  1  0
 83 87  1  0
 83142  1  0
 84 85  1  0
 84143  1  0
 85 86  1  0
 85122  1  0
 86 82  1  0
 87 88  1  0
 87134  1  0
 88 89  1  0
 89 84  1  0
 89123  1  0
 90 86  2  0
 91 88  2  0
 92 93  1  0
 92120  1  0
 93 94  1  0
 93 97  1  0
 93144  1  0
 94 95  1  0
 94145  1  0
 95 96  1  0
 96 92  1  0
 97 98  1  0
 97121  1  0
 98 99  1  0
 99 94  1  0
 99123  1  0
100 96  2  0
101 98  2  0
102 75  1  0
102131  1  0
102146  1  0
102147  1  0
103 59  1  0
103 67  1  0
103148  1  0
103149  1  0
104150  1  0
104151  1  0
105 62  1  0
105152  1  0
105153  1  0
106107  1  0
106116  1  0
107108  1  0
107111  1  0
107154  1  0
108109  1  0
108155  1  0
109110  1  0
109119  1  0
110106  1  0
111112  1  0
111117  1  0
112113  1  0
113108  1  0
113118  1  0
114110  2  0
115112  2  0
116156  1  0
116157  1  0
117158  1  0
117159  1  0
118160  1  0
118161  1  0
119162  1  0
119163  1  0
120164  1  0
120165  1  0
121166  1  0
121167  1  0
122 95  1  0
122168  1  0
122169  1  0
123170  1  0
123171  1  0
124125  1  0
125126  1  0
125129  1  0
125172  1  0
126127  1  0
126173  1  0
127104  1  0
127128  1  0
128124  1  0
128132  2  0
129130  1  0
130131  1  0
131126  1  0
133130  2  0
134124  1  0
134174  1  0
134175  1  0
135129  1  0
135176  1  0
135177  1  0
M  END
