
     RDKit          2D

175198  0  0  0  0  0  0  0  0999 V2000
   -3.9786   -1.0201    1.9643 C   0  0  0  0  0  0  0  0  0  0  0  0
   -2.7746   -0.0923    2.0138 C   0  0  0  0  0  0  0  0  0  0  0  0
   -1.8126   -0.5222    3.4415 Cl  0  0  0  0  0  0  0  0  0  0  0  0
   -3.2370    1.2699    2.3437 N   0  0  0  0  0  0  0  0  0  0  0  0
   -1.9590   -0.0421    0.6752 C   0  0  0  0  0  0  0  0  0  0  0  0
   -1.0767   -1.2717    0.3628 C   0  0  0  0  0  0  0  0  0  0  0  0
    0.4025   -0.9646    0.1058 C   0  0  0  0  0  0  0  0  0  0  0  0
    1.0984   -0.5730    1.4119 C   0  0  0  0  0  0  0  0  0  0  0  0
    0.8023    0.9149    1.5849 C   0  0  0  0  0  0  0  0  0  0  0  0
    0.0641    1.3186    0.3123 C   0  0  0  0  0  0  0  0  0  0  0  0
   -1.3446    1.2560    0.5207 O   0  0  0  0  0  0  0  0  0  0  0  0
    0.5822    0.3156   -0.7096 C   0  0  0  0  0  0  0  0  0  0  0  0
   -0.0824    0.3589   -2.0788 C   0  0  0  0  0  0  0  0  0  0  0  0
    0.6617   -0.4850   -3.1207 C   0  0  0  0  0  0  0  0  0  0  0  0
    2.0566    0.0440   -3.4707 C   0  0  0  0  0  0  0  0  0  0  0  0
    3.1738   -0.8763   -2.9872 C   0  0  0  0  0  0  0  0  0  0  0  0
    4.4422   -0.2730   -3.2552 O   0  0  0  0  0  0  0  0  0  0  0  0
    5.0268    0.3585   -2.0987 C   0  0  0  0  0  0  0  0  0  0  0  0
    6.2048    1.2439   -2.3944 C   0  0  0  0  0  0  0  0  0  0  0  0
    4.8858    1.8505   -2.0164 C   0  0  0  0  0  0  0  0  0  0  0  0
   -4.6559   -0.7513    1.1497 H   0  0  0  0  0  0  0  0  0  0  0  0
   -4.5642   -0.9801    2.8909 H   0  0  0  0  0  0  0  0  0  0  0  0
   -3.6658   -2.0591    1.8224 H   0  0  0  0  0  0  0  0  0  0  0  0
   -2.4033    1.8459    2.5567 H   0  0  0  0  0  0  0  0  0  0  0  0
   -3.8210    1.3070    3.1758 H   0  0  0  0  0  0  0  0  0  0  0  0
   -3.6985    1.7610    1.5593 H   0  0  0  0  0  0  0  0  0  0  0  0
   -2.7205   -0.0356   -0.1142 H   0  0  0  0  0  0  0  0  0  0  0  0
   -1.1751   -2.0387    1.1372 H   0  0  0  0  0  0  0  0  0  0  0  0
   -1.4790   -1.7490   -0.5408 H   0  0  0  0  0  0  0  0  0  0  0  0
    0.8958   -1.8282   -0.3486 H   0  0  0  0  0  0  0  0  0  0  0  0
    2.1783   -0.6984    1.3001 H   0  0  0  0  0  0  0  0  0  0  0  0
    0.7841   -1.1700    2.2686 H   0  0  0  0  0  0  0  0  0  0  0  0
    1.7460    1.4585    1.6555 H   0  0  0  0  0  0  0  0  0  0  0  0
    0.2240    1.1061    2.4861 H   0  0  0  0  0  0  0  0  0  0  0  0
    0.3056    2.3463    0.0335 H   0  0  0  0  0  0  0  0  0  0  0  0
    1.6556    0.5091   -0.8422 H   0  0  0  0  0  0  0  0  0  0  0  0
   -0.1132    1.3962   -2.4279 H   0  0  0  0  0  0  0  0  0  0  0  0
   -1.1230    0.0231   -2.0325 H   0  0  0  0  0  0  0  0  0  0  0  0
    0.0678   -0.4626   -4.0370 H   0  0  0  0  0  0  0  0  0  0  0  0
    0.7001   -1.5315   -2.8018 H   0  0  0  0  0  0  0  0  0  0  0  0
    2.2035    1.0617   -3.0922 H   0  0  0  0  0  0  0  0  0  0  0  0
    2.1445    0.1326   -4.5616 H   0  0  0  0  0  0  0  0  0  0  0  0
    3.0703   -1.1185   -1.9237 H   0  0  0  0  0  0  0  0  0  0  0  0
    3.1435   -1.8175   -3.5448 H   0  0  0  0  0  0  0  0  0  0  0  0
    5.0672   -0.2010   -1.1678 H   0  0  0  0  0  0  0  0  0  0  0  0
    6.5266    1.3272   -3.4249 H   0  0  0  0  0  0  0  0  0  0  0  0
    7.0037    1.2740   -1.6647 H   0  0  0  0  0  0  0  0  0  0  0  0
    4.7867    2.2863   -1.0296 H   0  0  0  0  0  0  0  0  0  0  0  0
    4.3156    2.3554   -2.7862 H   0  0  0  0  0  0  0  0  0  0  0  0
    3.0016   -3.8832    1.2911 N   0  0  0  0  0  0  0  0  0  0  0  0
    2.6731   -4.2931    2.6246 C   0  0  0  0  0  0  0  0  0  0  0  0
    3.3592   -3.2325    3.5336 C   0  0  0  0  0  0  0  0  0  0  0  0
    3.9909   -2.3371    2.6152 N   0  0  0  0  0  0  0  0  0  0  0  0
    3.8845   -2.8059    1.3114 C   0  0  0  0  0  0  0  0  0  0  0  0
    1.2858   -4.2181    2.9822 N   0  0  0  0  0  0  0  0  0  0  0  0
    1.1014   -3.3692    4.0712 C   0  0  0  0  0  0  0  0  0  0  0  0
    2.2888   -2.6926    4.3154 N   0  0  0  0  0  0  0  0  0  0  0  0
    4.5079   -2.3809    0.3550 O   0  0  0  0  0  0  0  0  0  0  0  0
    0.0863   -3.2862    4.7408 O   0  0  0  0  0  0  0  0  0  0  0  0
    4.2539   -0.0638    3.3401 N   0  0  0  0  0  0  0  0  0  0  0  0
    3.7563    0.2348    4.6495 C   0  0  0  0  0  0  0  0  0  0  0  0
    3.3555    1.7356    4.5708 C   0  0  0  0  0  0  0  0  0  0  0  0
    3.8401    2.1600    3.2945 N   0  0  0  0  0  0  0  0  0  0  0  0
    4.4439    1.1085    2.6114 C   0  0  0  0  0  0  0  0  0  0  0  0
    2.5507   -0.4263    5.0423 N   0  0  0  0  0  0  0  0  0  0  0  0
    1.5094    0.4753    5.1964 C   0  0  0  0  0  0  0  0  0  0  0  0
    1.9292    1.7237    4.7413 N   0  0  0  0  0  0  0  0  0  0  0  0
    5.0872    1.2100    1.5822 O   0  0  0  0  0  0  0  0  0  0  0  0
    0.4272    0.2412    5.7054 O   0  0  0  0  0  0  0  0  0  0  0  0
   -1.6000   -3.8761   -3.5364 N   0  0  0  0  0  0  0  0  0  0  0  0
   -2.9735   -4.0832   -3.1939 C   0  0  0  0  0  0  0  0  0  0  0  0
   -3.6955   -2.8180   -3.7409 C   0  0  0  0  0  0  0  0  0  0  0  0
   -2.6744   -2.1014   -4.4423 N   0  0  0  0  0  0  0  0  0  0  0  0
   -1.4913   -2.8375   -4.4590 C   0  0  0  0  0  0  0  0  0  0  0  0
   -3.2898   -4.0894   -1.7992 N   0  0  0  0  0  0  0  0  0  0  0  0
   -4.0921   -3.0163   -1.4613 C   0  0  0  0  0  0  0  0  0  0  0  0
   -4.2248   -2.1877   -2.5663 N   0  0  0  0  0  0  0  0  0  0  0  0
   -0.5443   -2.6455   -5.2005 O   0  0  0  0  0  0  0  0  0  0  0  0
   -4.6434   -2.8488   -0.3874 O   0  0  0  0  0  0  0  0  0  0  0  0
   -1.5867    4.1416   -2.6474 N   0  0  0  0  0  0  0  0  0  0  0  0
   -2.4742    4.9087   -1.8241 C   0  0  0  0  0  0  0  0  0  0  0  0
   -1.5696    5.4610   -0.6864 C   0  0  0  0  0  0  0  0  0  0  0  0
   -0.2527    5.0262   -1.0351 N   0  0  0  0  0  0  0  0  0  0  0  0
   -0.2625    4.3417   -2.2503 C   0  0  0  0  0  0  0  0  0  0  0  0
   -3.4716    4.1527   -1.1266 N   0  0  0  0  0  0  0  0  0  0  0  0
   -3.2230    4.0940    0.2299 C   0  0  0  0  0  0  0  0  0  0  0  0
   -2.1076    4.8651    0.5047 N   0  0  0  0  0  0  0  0  0  0  0  0
    0.7251    4.0330   -2.8927 O   0  0  0  0  0  0  0  0  0  0  0  0
   -3.9045    3.5052    1.0576 O   0  0  0  0  0  0  0  0  0  0  0  0
    2.7417    4.0731    2.3355 N   0  0  0  0  0  0  0  0  0  0  0  0
    1.6547    4.5792    3.1150 C   0  0  0  0  0  0  0  0  0  0  0  0
    0.7445    5.2848    2.0691 C   0  0  0  0  0  0  0  0  0  0  0  0
    1.3326    4.9570    0.8015 N   0  0  0  0  0  0  0  0  0  0  0  0
    2.5917    4.3882    0.9904 C   0  0  0  0  0  0  0  0  0  0  0  0
    0.8012    3.5870    3.7117 N   0  0  0  0  0  0  0  0  0  0  0  0
   -0.5009    3.6926    3.2334 C   0  0  0  0  0  0  0  0  0  0  0  0
   -0.5461    4.7141    2.3009 N   0  0  0  0  0  0  0  0  0  0  0  0
    3.4434    4.2523    0.1312 O   0  0  0  0  0  0  0  0  0  0  0  0
   -1.4724    3.0392    3.5892 O   0  0  0  0  0  0  0  0  0  0  0  0
   -2.9216   -0.9894   -5.3276 C   0  0  0  0  0  0  0  0  0  0  0  0
    2.4763   -1.8070    5.4311 C   0  0  0  0  0  0  0  0  0  0  0  0
   -5.1925   -1.1342   -2.6062 C   0  0  0  0  0  0  0  0  0  0  0  0
    4.9092   -1.2991    2.9996 C   0  0  0  0  0  0  0  0  0  0  0  0
    1.5375   -4.8010   -0.3947 N   0  0  0  0  0  0  0  0  0  0  0  0
    0.5130   -5.6412    0.1497 C   0  0  0  0  0  0  0  0  0  0  0  0
   -0.5718   -5.6879   -0.9631 C   0  0  0  0  0  0  0  0  0  0  0  0
   -0.0323   -4.8968   -2.0254 N   0  0  0  0  0  0  0  0  0  0  0  0
    1.2613   -4.4876   -1.7246 C   0  0  0  0  0  0  0  0  0  0  0  0
   -0.1764   -5.1172    1.2929 N   0  0  0  0  0  0  0  0  0  0  0  0
   -1.5234   -4.9131    1.0146 C   0  0  0  0  0  0  0  0  0  0  0  0
   -1.7422   -5.1592   -0.3328 N   0  0  0  0  0  0  0  0  0  0  0  0
    2.0483   -3.9999   -2.5159 O   0  0  0  0  0  0  0  0  0  0  0  0
   -2.3852   -4.6235    1.8272 O   0  0  0  0  0  0  0  0  0  0  0  0
    2.8733   -4.7310    0.1358 C   0  0  0  0  0  0  0  0  0  0  0  0
    0.3205   -5.2233    2.6372 C   0  0  0  0  0  0  0  0  0  0  0  0
   -3.0464   -5.2004   -0.9258 C   0  0  0  0  0  0  0  0  0  0  0  0
   -0.5708   -4.8680   -3.3626 C   0  0  0  0  0  0  0  0  0  0  0  0
    3.9557    3.5347    2.8886 C   0  0  0  0  0  0  0  0  0  0  0  0
    1.1333    2.9016    4.9336 C   0  0  0  0  0  0  0  0  0  0  0  0
    0.9542    5.5639   -0.4529 C   0  0  0  0  0  0  0  0  0  0  0  0
   -1.7598    5.2953    1.8214 C   0  0  0  0  0  0  0  0  0  0  0  0
   -4.4256    2.3709   -2.3719 N   0  0  0  0  0  0  0  0  0  0  0  0
   -4.0141    2.2251   -3.7314 C   0  0  0  0  0  0  0  0  0  0  0  0
   -4.2829    0.7260   -4.0386 C   0  0  0  0  0  0  0  0  0  0  0  0
   -4.5971    0.1607   -2.7548 N   0  0  0  0  0  0  0  0  0  0  0  0
   -4.7426    1.1559   -1.7947 C   0  0  0  0  0  0  0  0  0  0  0  0
   -2.6122    2.3911   -3.9807 N   0  0  0  0  0  0  0  0  0  0  0  0
   -2.1454    1.3106   -4.7340 C   0  0  0  0  0  0  0  0  0  0  0  0
   -3.0702    0.2727   -4.6445 N   0  0  0  0  0  0  0  0  0  0  0  0
   -5.1371    1.0046   -0.6486 O   0  0  0  0  0  0  0  0  0  0  0  0
   -1.1301    1.3030   -5.4064 O   0  0  0  0  0  0  0  0  0  0  0  0
   -4.6475    3.6329   -1.7457 C   0  0  0  0  0  0  0  0  0  0  0  0
   -1.9294    3.6638   -3.9696 C   0  0  0  0  0  0  0  0  0  0  0  0
    3.0718   -5.2932    2.8322 H   0  0  0  0  0  0  0  0  0  0  0  0
    4.1071   -3.7020    4.1833 H   0  0  0  0  0  0  0  0  0  0  0  0
    4.5453    0.0807    5.3950 H   0  0  0  0  0  0  0  0  0  0  0  0
    3.8259    2.3070    5.3796 H   0  0  0  0  0  0  0  0  0  0  0  0
   -3.3522   -4.9887   -3.6824 H   0  0  0  0  0  0  0  0  0  0  0  0
   -4.5086   -3.1010   -4.4199 H   0  0  0  0  0  0  0  0  0  0  0  0
   -2.9282    5.7236   -2.3993 H   0  0  0  0  0  0  0  0  0  0  0  0
   -1.6263    6.5542   -0.6334 H   0  0  0  0  0  0  0  0  0  0  0  0
    2.0074    5.2886    3.8723 H   0  0  0  0  0  0  0  0  0  0  0  0
    0.7375    6.3703    2.2203 H   0  0  0  0  0  0  0  0  0  0  0  0
   -3.8286   -1.1902   -5.9083 H   0  0  0  0  0  0  0  0  0  0  0  0
   -2.0924   -0.9089   -6.0378 H   0  0  0  0  0  0  0  0  0  0  0  0
    1.6416   -1.9304    6.1291 H   0  0  0  0  0  0  0  0  0  0  0  0
    3.3924   -2.0839    5.9642 H   0  0  0  0  0  0  0  0  0  0  0  0
   -5.7886   -1.1498   -1.6877 H   0  0  0  0  0  0  0  0  0  0  0  0
   -5.8895   -1.3122   -3.4332 H   0  0  0  0  0  0  0  0  0  0  0  0
    5.6084   -1.1199    2.1764 H   0  0  0  0  0  0  0  0  0  0  0  0
    5.5024   -1.6405    3.8553 H   0  0  0  0  0  0  0  0  0  0  0  0
    0.9016   -6.6458    0.3535 H   0  0  0  0  0  0  0  0  0  0  0  0
   -0.7457   -6.7177   -1.2961 H   0  0  0  0  0  0  0  0  0  0  0  0
    3.5513   -4.3752   -0.6467 H   0  0  0  0  0  0  0  0  0  0  0  0
    3.2055   -5.7422    0.3978 H   0  0  0  0  0  0  0  0  0  0  0  0
   -0.5230   -5.1681    3.3330 H   0  0  0  0  0  0  0  0  0  0  0  0
    0.7718   -6.2127    2.7743 H   0  0  0  0  0  0  0  0  0  0  0  0
   -3.8014   -5.1995   -0.1325 H   0  0  0  0  0  0  0  0  0  0  0  0
   -3.1631   -6.1359   -1.4839 H   0  0  0  0  0  0  0  0  0  0  0  0
    0.2432   -4.6698   -4.0673 H   0  0  0  0  0  0  0  0  0  0  0  0
   -0.9774   -5.8548   -3.6108 H   0  0  0  0  0  0  0  0  0  0  0  0
    4.7536    3.6177    2.1433 H   0  0  0  0  0  0  0  0  0  0  0  0
    4.2538    4.1402    3.7516 H   0  0  0  0  0  0  0  0  0  0  0  0
    0.2013    2.6329    5.4418 H   0  0  0  0  0  0  0  0  0  0  0  0
    1.6673    3.5889    5.5996 H   0  0  0  0  0  0  0  0  0  0  0  0
    1.7728    5.4453   -1.1700 H   0  0  0  0  0  0  0  0  0  0  0  0
    0.8252    6.6410   -0.2975 H   0  0  0  0  0  0  0  0  0  0  0  0
   -1.6721    6.3875    1.8340 H   0  0  0  0  0  0  0  0  0  0  0  0
   -2.5709    5.0337    2.5098 H   0  0  0  0  0  0  0  0  0  0  0  0
   -4.5957    2.8735   -4.3971 H   0  0  0  0  0  0  0  0  0  0  0  0
   -5.1329    0.6144   -4.7218 H   0  0  0  0  0  0  0  0  0  0  0  0
   -5.4247    3.5144   -0.9824 H   0  0  0  0  0  0  0  0  0  0  0  0
   -5.0204    4.3516   -2.4836 H   0  0  0  0  0  0  0  0  0  0  0  0
   -2.5611    4.4087   -4.4668 H   0  0  0  0  0  0  0  0  0  0  0  0
   -1.0126    3.5819   -4.5620 H   0  0  0  0  0  0  0  0  0  0  0  0
  1  2  1  0
  2  3  1  1
  2  4  1  0
  2  5  1  0
  5  6  1  0
  6  7  1  0
  7  8  1  0
  8  9  1  0
  9 10  1  0
 10 11  1  0
 10 12  1  0
 12 13  1  0
 13 14  1  0
 14 15  1  0
 15 16  1  0
 16 17  1  0
 17 18  1  0
 18 19  1  0
 19 20  1  0
 11  5  1  0
 20 18  1  0
 12  7  1  0
  1 21  1  0
  1 22  1  0
  1 23  1  0
  4 24  1  0
  4 25  1  0
  4 26  1  0
  5 27  1  1
  6 28  1  0
  6 29  1  0
  7 30  1  6
  8 31  1  0
  8 32  1  0
  9 33  1  0
  9 34  1  0
 10 35  1  1
 12 36  1  6
 13 37  1  0
 13 38  1  0
 14 39  1  0
 14 40  1  0
 15 41  1  0
 15 42  1  0
 16 43  1  0
 16 44  1  0
 18 45  1  0
 19 46  1  0
 19 47  1  0
 20 48  1  0
 20 49  1  0
 50 51  1  0
 50114  1  0
 51 52  1  0
 51 55  1  0
 51134  1  0
 52 53  1  0
 52135  1  0
 53 54  1  0
 53103  1  0
 54 50  1  0
 55 56  1  0
 55115  1  0
 56 57  1  0
 57 52  1  0
 58 54  2  0
 59 56  2  0
 60 61  1  0
 61 62  1  0
 61 65  1  0
 61136  1  0
 62 63  1  0
 62137  1  0
 63 64  1  0
 63118  1  0
 64 60  1  0
 65 66  1  0
 66 67  1  0
 67 62  1  0
 67119  1  0
 68 64  2  0
 69 66  2  0
 70 71  1  0
 70117  1  0
 71 72  1  0
 71 75  1  0
 71138  1  0
 72 73  1  0
 72139  1  0
 73 74  1  0
 74 70  1  0
 75 76  1  0
 75116  1  0
 76 77  1  0
 77 72  1  0
 77102  1  0
 78 74  2  0
 79 76  2  0
 80 81  1  0
 80133  1  0
 81 82  1  0
 81 85  1  0
 81140  1  0
 82 83  1  0
 82141  1  0
 83 84  1  0
 83120  1  0
 84 80  1  0
 85 86  1  0
 85132  1  0
 86 87  1  0
 87 82  1  0
 87121  1  0
 88 84  2  0
 89 86  2  0
 90 91  1  0
 90118  1  0
 91 92  1  0
 91 95  1  0
 91142  1  0
 92 93  1  0
 92143  1  0
 93 94  1  0
 94 90  1  0
 95 96  1  0
 95119  1  0
 96 97  1  0
 97 92  1  0
 97121  1  0
 98 94  2  0
 99 96  2  0
100 73  1  0
100129  1  0
100144  1  0
100145  1  0
101 57  1  0
101 65  1  0
101146  1  0
101147  1  0
102148  1  0
102149  1  0
103 60  1  0
103150  1  0
103151  1  0
104105  1  0
104114  1  0
105106  1  0
105109  1  0
105152  1  0
106107  1  0
106153  1  0
107108  1  0
107117  1  0
108104  1  0
109110  1  0
109115  1  0
110111  1  0
111106  1  0
111116  1  0
112108  2  0
113110  2  0
114154  1  0
114155  1  0
115156  1  0
115157  1  0
116158  1  0
116159  1  0
117160  1  0
117161  1  0
118162  1  0
118163  1  0
119164  1  0
119165  1  0
120 93  1  0
120166  1  0
120167  1  0
121168  1  0
121169  1  0
122123  1  0
123124  1  0
123127  1  0
123170  1  0
124125  1  0
124171  1  0
125102  1  0
125126  1  0
126122  1  0
126130  2  0
127128  1  0
128129  1  0
129124  1  0
131128  2  0
132122  1  0
132172  1  0
132173  1  0
133127  1  0
133174  1  0
133175  1  0
M  CHG  1   4   1
M  END
