
     RDKit          3D

 27 29  0  0  0  0  0  0  0  0999 V2000
   -1.3277   -1.2627   -0.3619 C   0  0  0  0  0  0  0  0  0  0  0  0
   -0.3560   -1.2966    0.8313 C   0  0  0  0  0  0  0  0  0  0  0  0
   -0.6079   -0.0674    1.7230 C   0  0  0  0  0  0  0  0  0  0  0  0
   -0.3935    1.2263    0.9167 C   0  0  0  0  0  0  0  0  0  0  0  0
   -1.3650    1.2442   -0.2771 C   0  0  0  0  0  0  0  0  0  0  0  0
   -1.1166    0.0233   -1.1809 C   0  0  0  0  0  0  0  0  0  0  0  0
    0.3325    0.0623   -1.6931 C   0  0  0  0  0  0  0  0  0  0  0  0
    1.3118    0.0367   -0.5069 C   0  0  0  0  0  0  0  0  0  0  0  0
    1.0884   -1.2511    0.3062 C   0  0  0  0  0  0  0  0  0  0  0  0
    1.0510    1.2593    0.3912 C   0  0  0  0  0  0  0  0  0  0  0  0
    2.6421    0.0733   -1.0030 O   0  0  0  0  0  0  0  0  0  0  0  0
   -2.3630   -1.3118   -0.0028 H   0  0  0  0  0  0  0  0  0  0  0  0
   -1.1691   -2.1418   -0.9986 H   0  0  0  0  0  0  0  0  0  0  0  0
   -0.5117   -2.2134    1.4106 H   0  0  0  0  0  0  0  0  0  0  0  0
    0.0688   -0.0865    2.5861 H   0  0  0  0  0  0  0  0  0  0  0  0
   -1.6304   -0.0960    2.1190 H   0  0  0  0  0  0  0  0  0  0  0  0
   -0.5759    2.0968    1.5565 H   0  0  0  0  0  0  0  0  0  0  0  0
   -2.4010    1.2381    0.0835 H   0  0  0  0  0  0  0  0  0  0  0  0
   -1.2333    2.1687   -0.8527 H   0  0  0  0  0  0  0  0  0  0  0  0
   -1.8107    0.0417   -2.0283 H   0  0  0  0  0  0  0  0  0  0  0  0
    0.5258   -0.7875   -2.3607 H   0  0  0  0  0  0  0  0  0  0  0  0
    0.4998    0.9605   -2.3015 H   0  0  0  0  0  0  0  0  0  0  0  0
    1.2993   -2.1310   -0.3151 H   0  0  0  0  0  0  0  0  0  0  0  0
    1.7999   -1.3001    1.1407 H   0  0  0  0  0  0  0  0  0  0  0  0
    1.2350    2.1852   -0.1690 H   0  0  0  0  0  0  0  0  0  0  0  0
    1.7616    1.2729    1.2277 H   0  0  0  0  0  0  0  0  0  0  0  0
    3.2460    0.0565   -0.2410 H   0  0  0  0  0  0  0  0  0  0  0  0
  1  2  1  0
  2  3  1  0
  3  4  1  0
  4  5  1  0
  5  6  1  0
  6  7  1  0
  7  8  1  0
  8  9  1  0
  8 10  1  0
  8 11  1  0
  6  1  1  0
  9  2  1  0
 10  4  1  0
  1 12  1  0
  1 13  1  0
  2 14  1  0
  3 15  1  0
  3 16  1  0
  4 17  1  0
  5 18  1  0
  5 19  1  0
  6 20  1  0
  7 21  1  0
  7 22  1  0
  9 23  1  0
  9 24  1  0
 10 25  1  0
 10 26  1  0
 11 27  1  0
M  END
