
     RDKit          3D

 41 43  0  0  0  0  0  0  0  0999 V2000
   -2.4999    1.5125   -2.6417 C   0  0  0  0  0  0  0  0  0  0  0  0
   -2.5497    1.0344   -1.3171 O   0  0  0  0  0  0  0  0  0  0  0  0
   -2.0798    2.0210   -0.4162 C   0  0  1  0  0  0  0  0  0  0  0  0
   -3.1791    2.3988    0.5410 C   0  0  0  0  0  0  0  0  0  0  0  0
   -4.4020    3.0082    0.2525 C   0  0  0  0  0  0  0  0  0  0  0  0
   -5.2836    3.2806    1.3133 C   0  0  0  0  0  0  0  0  0  0  0  0
   -4.9322    2.9463    2.6372 C   0  0  0  0  0  0  0  0  0  0  0  0
   -3.6962    2.3378    2.9110 C   0  0  0  0  0  0  0  0  0  0  0  0
   -2.8436    2.0777    1.8396 C   0  0  0  0  0  0  0  0  0  0  0  0
   -1.5325    1.4840    1.8093 C   0  0  0  0  0  0  0  0  0  0  0  0
   -0.8809    1.0780    2.8080 O   0  0  0  0  0  0  0  0  0  0  0  0
   -1.0641    1.4326    0.4647 N   0  0  0  0  0  0  0  0  0  0  0  0
    0.2651    0.9941    0.0413 C   0  0  0  0  0  0  0  0  0  0  0  0
    0.4071   -0.4984    0.1337 C   0  0  0  0  0  0  0  0  0  0  0  0
   -0.5783   -1.2158    0.4608 O   0  0  0  0  0  0  0  0  0  0  0  0
    1.6692   -1.1059   -0.1669 N   0  0  0  0  0  0  0  0  0  0  0  0
    1.8556   -2.5550   -0.0972 C   0  0  0  0  0  0  0  0  0  0  0  0
    3.2831   -2.9258   -0.4108 C   0  0  0  0  0  0  0  0  0  0  0  0
    4.2987   -2.5998    0.5037 C   0  0  0  0  0  0  0  0  0  0  0  0
    5.6291   -2.9305    0.2310 C   0  0  0  0  0  0  0  0  0  0  0  0
    5.9581   -3.5887   -0.9575 C   0  0  0  0  0  0  0  0  0  0  0  0
    7.6283   -4.0025   -1.2986 Cl  0  0  0  0  0  0  0  0  0  0  0  0
    4.9546   -3.9154   -1.8750 C   0  0  0  0  0  0  0  0  0  0  0  0
    3.6212   -3.5868   -1.6074 C   0  0  0  0  0  0  0  0  0  0  0  0
    2.6677   -3.9078   -2.5184 F   0  0  0  0  0  0  0  0  0  0  0  0
   -2.8980    0.7281   -3.3173 H   0  0  0  0  0  0  0  0  0  0  0  0
   -3.1329    2.4196   -2.7636 H   0  0  0  0  0  0  0  0  0  0  0  0
   -1.4511    1.7239   -2.9473 H   0  0  0  0  0  0  0  0  0  0  0  0
   -1.6669    2.9450   -0.8904 H   0  0  0  0  0  0  0  0  0  0  0  0
   -4.6665    3.2657   -0.7646 H   0  0  0  0  0  0  0  0  0  0  0  0
   -6.2372    3.7511    1.1122 H   0  0  0  0  0  0  0  0  0  0  0  0
   -5.6172    3.1613    3.4470 H   0  0  0  0  0  0  0  0  0  0  0  0
   -3.4154    2.0803    3.9240 H   0  0  0  0  0  0  0  0  0  0  0  0
    1.0326    1.4798    0.6807 H   0  0  0  0  0  0  0  0  0  0  0  0
    0.4461    1.3028   -1.0105 H   0  0  0  0  0  0  0  0  0  0  0  0
    2.4658   -0.4881   -0.4459 H   0  0  0  0  0  0  0  0  0  0  0  0
    1.1524   -3.0427   -0.8056 H   0  0  0  0  0  0  0  0  0  0  0  0
    1.6036   -2.9147    0.9241 H   0  0  0  0  0  0  0  0  0  0  0  0
    4.0581   -2.0886    1.4279 H   0  0  0  0  0  0  0  0  0  0  0  0
    6.4026   -2.6744    0.9437 H   0  0  0  0  0  0  0  0  0  0  0  0
    5.2078   -4.4229   -2.7972 H   0  0  0  0  0  0  0  0  0  0  0  0
  1  2  1  0
  2  3  1  0
  3  4  1  0
  4  5  2  0
  5  6  1  0
  6  7  2  0
  7  8  1  0
  8  9  2  0
  9 10  1  0
 10 11  2  0
 10 12  1  0
 12 13  1  0
 13 14  1  0
 14 15  2  0
 14 16  1  0
 16 17  1  0
 17 18  1  0
 18 19  2  0
 19 20  1  0
 20 21  2  0
 21 22  1  0
 21 23  1  0
 23 24  2  0
 24 25  1  0
 12  3  1  0
 24 18  1  0
  9  4  1  0
  1 26  1  0
  1 27  1  0
  1 28  1  0
  3 29  1  6
  5 30  1  0
  6 31  1  0
  7 32  1  0
  8 33  1  0
 13 34  1  0
 13 35  1  0
 16 36  1  0
 17 37  1  0
 17 38  1  0
 19 39  1  0
 20 40  1  0
 23 41  1  0
M  END
$$$$
